Version 4
SHEET 1 2844 820
WIRE -1088 -928 -1168 -928
WIRE -800 -928 -864 -928
WIRE -1088 -896 -1168 -896
WIRE -1088 -864 -1168 -864
WIRE -1088 -832 -1184 -832
WIRE 2448 -752 1440 -752
WIRE 784 -704 112 -704
WIRE -352 -576 -528 -576
WIRE -96 -576 -352 -576
WIRE 2448 -560 2448 -752
WIRE 2672 -560 2448 -560
WIRE 432 -544 336 -544
WIRE 1904 -544 1712 -544
WIRE 112 -528 112 -704
WIRE 224 -528 112 -528
WIRE 528 -512 336 -512
WIRE 1200 -512 1152 -512
WIRE -1248 -496 -1248 -528
WIRE -1152 -496 -1248 -496
WIRE -96 -496 -96 -576
WIRE 224 -496 -96 -496
WIRE 1712 -480 1712 -544
WIRE 2672 -448 2048 -448
WIRE -1248 -432 -1248 -496
WIRE -352 -400 -352 -576
WIRE -224 -400 -352 -400
WIRE 432 -400 432 -544
WIRE 432 -400 144 -400
WIRE 1152 -400 1152 -512
WIRE 1280 -400 1152 -400
WIRE 1440 -400 1440 -752
WIRE 1664 -400 1440 -400
WIRE -1056 -384 -1136 -384
WIRE 1152 -352 1152 -400
WIRE 1280 -352 1280 -400
WIRE 1712 -352 1712 -384
WIRE 1824 -352 1824 -416
WIRE 1824 -352 1712 -352
WIRE -64 -336 -160 -336
WIRE 144 -336 144 -400
WIRE 144 -336 0 -336
WIRE 224 -336 144 -336
WIRE 528 -336 336 -336
WIRE -1248 -304 -1248 -352
WIRE -1136 -304 -1136 -384
WIRE -1136 -304 -1248 -304
WIRE 224 -304 128 -304
WIRE -1248 -272 -1248 -304
WIRE 784 -272 784 -704
WIRE 1088 -272 784 -272
WIRE 1440 -272 1440 -400
WIRE 1440 -272 1344 -272
WIRE 1904 -272 1904 -544
WIRE 2048 -272 2048 -448
WIRE 2048 -272 1904 -272
WIRE 2224 -272 2048 -272
WIRE 2496 -272 2304 -272
WIRE 2672 -272 2496 -272
WIRE 128 -240 128 -304
WIRE 128 -240 32 -240
WIRE -1136 -224 -1136 -304
WIRE -1056 -224 -1136 -224
WIRE -352 -192 -352 -272
WIRE 1088 -176 784 -176
WIRE 1440 -176 1344 -176
WIRE 2496 -176 2496 -272
WIRE -1248 -128 -1248 -192
WIRE 624 -128 368 -128
WIRE 672 -128 624 -128
WIRE 2688 -128 2608 -128
WIRE 2048 -48 2048 -272
WIRE 2048 -48 1904 -48
WIRE 2496 -48 2496 -112
WIRE -320 -16 -320 -80
WIRE -224 -16 -224 -400
WIRE -224 -16 -320 -16
WIRE -64 -16 -160 -16
WIRE 32 -16 0 -16
WIRE 224 -16 32 -16
WIRE 368 -16 368 -128
WIRE 368 -16 336 -16
WIRE 464 -16 384 -16
WIRE 624 -16 624 -128
WIRE 624 -16 576 -16
WIRE 224 16 128 16
WIRE 464 16 416 16
WIRE 128 80 128 16
WIRE 384 80 384 -16
WIRE 384 80 128 80
WIRE 416 96 416 16
WIRE 544 96 416 96
WIRE 544 144 544 96
WIRE 544 144 512 144
WIRE 480 208 128 208
WIRE 784 208 784 -176
WIRE 784 208 528 208
WIRE 432 272 336 272
WIRE 528 272 528 208
WIRE 544 272 528 272
WIRE 784 272 656 272
WIRE 128 288 128 208
WIRE 224 288 128 288
WIRE 400 304 336 304
WIRE 480 304 480 208
WIRE 544 304 480 304
WIRE 784 304 784 272
WIRE 864 304 784 304
WIRE 1440 304 1440 -176
WIRE 1856 304 1856 32
WIRE 1856 304 1440 304
WIRE 2608 304 2608 -128
WIRE 2608 304 1856 304
WIRE 32 320 32 -16
WIRE 224 320 32 320
WIRE 400 416 400 304
WIRE 784 416 784 304
WIRE 784 416 400 416
WIRE -352 480 -352 -80
WIRE 432 480 432 272
WIRE 432 480 -352 480
FLAG -1248 -608 0
FLAG -1248 -128 0
FLAG -1248 144 0
FLAG -1248 64 Vctrl
IOPIN -1248 64 Out
FLAG -1056 -384 Vcm
IOPIN -1056 -384 Out
FLAG -1056 -224 Vbias
IOPIN -1056 -224 Out
FLAG -1168 -896 Vcm
IOPIN -1168 -896 In
FLAG -1168 -928 Vbias
IOPIN -1168 -928 In
FLAG -800 -928 Vpwm
IOPIN -800 -928 Out
FLAG -528 -576 Vpwm
IOPIN -528 -576 In
FLAG -160 -336 0
FLAG -160 -16 0
FLAG 32 -240 Vgate_n
IOPIN 32 -240 In
FLAG 512 144 Vgate_p
IOPIN 512 144 In
FLAG 2496 -48 0
FLAG -1152 -496 Vdd
IOPIN -1152 -496 Out
FLAG 528 -512 Vdd
IOPIN 528 -512 Out
FLAG 528 -336 Vdd
IOPIN 528 -336 Out
FLAG -352 -272 Vdd
IOPIN -352 -272 Out
FLAG 672 -128 Vdd
IOPIN 672 -128 Out
FLAG 864 304 Vdd
IOPIN 864 304 Out
FLAG 1200 -512 Vdd
IOPIN 1200 -512 Out
FLAG 1824 -416 Vdd
IOPIN 1824 -416 Out
FLAG 1904 48 0
FLAG 2672 -560 Vgate_p
IOPIN 2672 -560 Out
FLAG 2688 -128 Vgate_n
IOPIN 2688 -128 Out
FLAG 2672 -448 Vsw
IOPIN 2672 -448 Out
FLAG 2672 -272 Vout
IOPIN 2672 -272 Out
FLAG 336 -304 0
FLAG 336 -480 0
FLAG 336 16 0
FLAG 576 16 0
FLAG 336 336 0
FLAG 656 304 0
FLAG -320 -192 0
FLAG 1152 -96 0
FLAG 1280 -96 0
FLAG -1168 -864 Vctrl
IOPIN -1168 -864 In
FLAG -1184 -832 Vdd
IOPIN -1184 -832 In
SYMBOL AutoGenerated\\SN74AHC00 272 -512 R0
SYMATTR InstName U1
SYMBOL AutoGenerated\\SN74AHC00 272 304 R0
SYMATTR InstName U2
SYMBOL AutoGenerated\\CD4069UB 272 -320 R0
SYMATTR InstName U3
SYMBOL AutoGenerated\\CD4069UB 272 0 R0
SYMATTR InstName U4
SYMBOL AutoGenerated\\CD4069UB 512 0 R0
SYMATTR InstName U5
SYMBOL AutoGenerated\\CD4069UB 592 288 R0
SYMATTR InstName U6
SYMBOL Exp_1_block -976 -880 R0
SYMATTR InstName Exp1-Block
SYMBOL voltage -1248 -512 R180
WINDOW 0 24 96 Left 2
WINDOW 3 24 16 Left 2
WINDOW 123 0 0 Left 0
WINDOW 39 0 0 Left 0
SYMATTR InstName V1
SYMATTR Value 5
SYMBOL res -1264 -448 R0
SYMATTR InstName Rtemp1
SYMATTR Value 1
SYMBOL res -1264 -288 R0
SYMATTR InstName Rtemp2
SYMATTR Value 1
SYMBOL voltage -1248 48 R0
WINDOW 123 0 0 Left 0
WINDOW 39 0 0 Left 0
SYMATTR InstName Vcontrol
SYMATTR Value 2.6
SYMBOL cap 0 -352 R90
WINDOW 0 0 32 VBottom 2
WINDOW 3 32 32 VTop 2
SYMATTR InstName C1
SYMATTR Value 1n
SYMBOL cap 0 -32 R90
WINDOW 0 0 32 VBottom 2
WINDOW 3 32 32 VTop 2
SYMATTR InstName C2
SYMATTR Value 1n
SYMBOL AutoGenerated\\CD4069UB -336 -128 R270
SYMATTR InstName U7
SYMBOL PowerProducts\\LTC1693-1 1216 -224 R0
SYMATTR InstName U8
SYMBOL ind 2208 -256 R270
WINDOW 0 32 56 VTop 2
WINDOW 3 5 56 VBottom 2
SYMATTR InstName L1
SYMATTR Value 100µ
SYMBOL cap 2480 -176 R0
SYMATTR InstName C3
SYMATTR Value 47µ
SYMBOL pmos 1664 -480 R0
SYMATTR InstName M1
SYMATTR Value AO6407
SYMBOL nmos 1856 -48 R0
SYMATTR InstName M2
SYMATTR Value Si7336ADP
TEXT -1320 488 Left 2 !.tran 1e-3 startup
TEXT 48 624 Left 2 ;Non-Overlap Clock Generator
TEXT 2280 48 Left 2 ;Low-Pass Filter
TEXT 1144 -40 Left 2 ;Gate Driver
TEXT 1832 512 Left 2 ;Done by Kaushik, EE20B057
TEXT 1840 552 Left 2 ;Analog Labs 2022 Summer
RECTANGLE Normal 976 560 -448 -848 2
RECTANGLE Normal 2576 0 2144 -368 2
RECTANGLE Normal 2192 640 1792 432 2
